[General]
network = SITLTopology
sim-time-limit = 1h
ned-path = ../ned
record-eventlog = false
**.bridge.stateFile = "../../outputs/runtime/omnetpp.env"
**.bridge.pollInterval = 1s

[Config ArchitectureView]
description = "Static architecture and zoned 5G NR SITL topology"

[Config RuntimeView]
description = "Runtime polling view with metrics and testcase overlays"
